%nprocshared=1
%mem=1GB
%chk=filename.chk
# hf/3-21g

Title Card Required

0 1
 C                 -0.12804879   -0.15853658    0.00000000
 H                  0.22860564   -1.16734659    0.00000000
 H                  0.22862405    0.34586161    0.87365150
 H                  0.22862405    0.34586161   -0.87365150
 H                 -1.19804879   -0.15852340    0.00000000

